[TITLE]
;;Project Title/Notes

[OPTIONS]
;;Option             Value
FLOW_UNITS           CMS
INFILTRATION         HORTON
FLOW_ROUTING         DYNWAVE
LINK_OFFSETS         DEPTH
MIN_SLOPE            0
ALLOW_PONDING        NO
SKIP_STEADY_STATE    NO

START_DATE           12/04/2002
START_TIME           00:00:00
REPORT_START_DATE    12/04/2002
REPORT_START_TIME    00:00:00
END_DATE             03/20/2019
END_TIME             06:00:00
SWEEP_START          01/01
SWEEP_END            12/31
DRY_DAYS             0
REPORT_STEP          24:00:00
WET_STEP             00:05:00
DRY_STEP             01:00:00
ROUTING_STEP         0:01:00 
RULE_STEP            00:00:00

INERTIAL_DAMPING     PARTIAL
NORMAL_FLOW_LIMITED  BOTH
FORCE_MAIN_EQUATION  H-W
VARIABLE_STEP        0.75
LENGTHENING_STEP     0
MIN_SURFAREA         1.167
MAX_TRIALS           8
HEAD_TOLERANCE       0.0015
SYS_FLOW_TOL         5
LAT_FLOW_TOL         5
MINIMUM_STEP         0.5
THREADS              1

[EVAPORATION]
;;Data Source    Parameters
;;-------------- ----------------
MONTHLY          0.802091 1.22059 2.015472 2.945  3.7908 4.357  4.304421 4.025687 3.282284 2.258244 1.279753 0.785902
DRY_ONLY         NO

[RAINGAGES]
;;Name           Format    Interval SCF      Source    
;;-------------- --------- ------ ------ ----------
R1               VOLUME    24:00    1.0      FILE       "precipn.dat"    STA01      MM   

[SUBCATCHMENTS]
;;Name           Rain Gage        Outlet           Area     %Imperv  Width    %Slope   CurbLen  SnowPack        
;;-------------- ---------------- ---------------- -------- -------- -------- -------- -------- ----------------
S1               R1               j111             60.4     45.6     343506.4 2.8      0                        
S2               R1               j116             20.9     59.4     176629.1 2.2      0                        
S3               R1               o1               78.7     37.4     362572.5 2.6      0                        
S4               R1               j2               36.3     39.0     236644.5 2.6      0                        
S5               R1               j6               18.6     23.3     219976.8 2.7      0                        
S6               R1               j151             27.1     25.0     252790.9 4.0      0                        
S7               R1               j5               4.5      23.9     82421.2  4.4      0                        
S8               R1               j103             20.8     56.7     192829.9 2.2      0                        
S9               R1               j6               38.7     19.8     335878.3 2.4      0                        
S10              R1               j9               22.0     16.6     213030.4 2.2      0                        
S11              R1               j117             31.9     22.8     236621.2 3.4      0                        
S12              R1               j121             32.7     15.8     266513.1 4.0      0                        
S13              R1               j149             24.7     3.6      224534.2 4.0      0                        
S14              R1               j102             53.6     10.4     353287.6 4.9      0                        
S15              R1               j152             29.5     45.9     256781.9 2.6      0                        
S16              R1               j120             28.3     21.3     238480.9 3.6      0                        
S17              R1               j20              10.6     4.0      209458.6 4.6      0                        
S18              R1               j21              0.1      24.0     23459.3  5.0      0                        
S19              R1               j22              43.1     11.9     309515.3 4.9      0                        
S20              R1               j110             37.1     36.9     315142.1 2.8      0                        
S21              R1               j154             40.4     14.8     264656.0 4.1      0                        
S22              R1               j100             11.4     5.5      174189.9 3.8      0                        
S23              R1               j157             16.9     6.3      164196.8 4.7      0                        
S24              R1               j118             46.2     17.3     358227.5 4.8      0                        
S25              R1               j156             23.4     2.9      214829.1 4.3      0                        
S26              R1               j25              51.5     7.0      363390.0 5.2      0                        
S27              R1               j122             22.6     9.0      224631.5 4.8      0                        
S28              R1               j213             2.4      0.0      57653.7  3.2      0                        
S29              R1               j213             45.5     41.6     243859.2 3.0      0                        
S30              R1               j215             37.1     29.2     290251.4 3.3      0                        
S31              R1               j105             40.9     32.3     232892.3 3.1      0                        
S32              R1               j123             22.6     6.6      240787.4 5.5      0                        
S33              R1               j124             21.3     23.8     199216.3 3.0      0                        
S34              R1               j126             5.6      14.1     117807.3 3.4      0                        
S35              R1               j208             21.8     25.7     224436.8 3.9      0                        
S36              R1               j209             21.9     9.0      254346.5 3.3      0                        
S37              R1               j207             22.1     2.4      234718.1 4.7      0                        
S38              R1               j211             20.8     14.0     234610.2 3.1      0                        
S39              R1               j209             0.2      0.5      31350.0  4.5      0                        
S40              R1               j107             103.2    28.4     472062.5 3.1      0                        
S41              R1               j210             22.2     16.1     263417.5 4.0      0                        
S42              R1               j202             26.1     24.3     222892.3 4.5      0                        
S43              R1               j203             65.0     24.8     323576.7 10.8     0                        
S44              R1               j206             6.0      0.0      111133.5 6.3      0                        
S45              R1               j204             15.5     2.7      203718.3 4.5      0                        
S46              R1               j185             21.2     71.7     214920.9 2.1      0                        
S47              R1               j125             84.8     16.4     472555.3 4.2      0                        
S48              R1               j183             1.4      54.3     55997.4  2.7      0                        
S49              R1               j181             47.7     80.7     353175.6 2.1      0                        
S50              R1               j205             30.2     19.5     281921.5 4.3      0                        
S51              R1               j183             8.9      90.5     136510.8 1.3      0                        
S52              R1               j184             28.9     71.0     202366.0 1.8      0                        
S53              R1               j127             72.1     18.4     362039.7 3.1      0                        
S54              R1               j204             22.5     3.8      202375.7 4.7      0                        
S55              R1               j186             55.3     31.3     394282.5 2.9      0                        
S56              R1               j56              62.5     13.5     411107.1 4.2      0                        
S57              R1               j182             62.6     73.1     288699.9 1.9      0                        
S58              R1               j129             17.4     24.1     224967.0 2.1      0                        
S59              R1               j128             82.7     22.0     424689.5 2.5      0                        
S60              R1               j132             32.0     16.1     312909.2 3.5      0                        
S61              R1               j134             24.0     22.0     189311.1 2.6      0                        
S62              R1               j55              37.0     28.7     291170.5 2.8      0                        
S63              R1               j192             6.8      15.3     137756.7 2.6      0                        
S64              R1               j198             29.4     16.1     299315.5 2.8      0                        
S65              R1               j66              54.3     38.4     366972.3 3.6      0                        
S66              R1               j35              15.0     13.0     240835.4 2.8      0                        
S67              R1               j137             26.5     15.1     257981.6 2.8      0                        
S68              R1               j135             43.8     15.6     281501.1 2.3      0                        
S69              R1               j73              63.2     45.3     755885.2 2.3      0                        
S70              R1               j167             40.0     44.5     327064.2 3.1      0                        
S71              R1               j164             54.9     60.1     326854.0 2.0      0                        
S72              R1               j163             42.0     71.4     265205.7 2.0      0                        
S73              R1               j82              0.2      28.3     11584.5  1.9      0                        
S74              R1               j138             14.7     29.1     154509.9 2.8      0                        
S75              R1               j83              35.2     36.3     234634.7 2.6      0                        
S76              R1               j83              8.4      42.9     103727.3 2.8      0                        
S77              R1               j139             35.0     24.1     291297.0 3.3      0                        
S78              R1               j45              14.9     20.5     173613.6 3.2      0                        
S79              R1               j89              16.0     45.2     154493.5 2.6      0                        
S80              R1               j148             31.6     23.1     336895.1 2.1      0                        
S81              R1               j45              0.3      12.5     25686.7  1.5      0                        
S82              R1               j50              47.5     21.3     382579.6 2.8      0                        
S83              R1               j196             23.5     12.3     173715.1 3.3      0                        
S84              R1               j76              33.5     50.7     260875.1 3.3      0                        
S85              R1               j77              52.1     29.0     467114.8 2.7      0                        
S86              R1               j142             9.8      9.2      157558.6 3.2      0                        
S87              R1               j141             21.0     19.2     241171.3 3.2      0                        
S88              R1               j165             64.0     47.7     445975.9 2.5      0                        
S89              R1               j195             33.5     15.7     231281.6 3.5      0                        
S90              R1               j89              1.8      55.7     32904.7  2.4      0                        
S91              R1               j194             105.1    26.0     517846.8 3.5      0                        
S92              R1               j143             37.3     30.6     285913.2 3.5      0                        
S93              R1               j44              26.4     14.5     261449.5 3.5      0                        
S94              R1               j146             22.7     12.7     214599.9 3.1      0                        
S95              R1               j96              47.2     26.3     337420.8 2.6      0                        
S96              R1               j179             29.7     25.2     278216.3 3.0      0                        
S97              R1               j160             118.0    82.9     470231.2 1.7      0                        
S98              R1               j189             36.7     22.9     296062.6 3.3      0                        
S99              R1               j188             30.2     28.2     189613.7 3.9      0                        
S100             R1               j86              109.4    38.1     417918.6 2.4      0                        
S101             R1               j144             54.4     25.9     402534.5 2.7      0                        
S102             R1               j172             29.8     59.6     219629.1 2.1      0                        
S103             R1               j159             58.5     63.0     356372.4 2.2      0                        
S104             R1               j177             39.6     35.0     351404.5 2.5      0                        
S105             R1               j99              14.2     28.2     230365.7 2.7      0                        
S106             R1               j176             22.5     27.2     279444.1 2.9      0                        
S107             R1               j158             122.0    59.5     449632.1 2.1      0                        
S108             R1               j171             54.1     56.9     251088.5 2.2      0                        
S109             R1               j175             37.9     29.8     233108.3 2.4      0                        
S110             R1               j169             59.9     36.7     349879.2 2.1      0                        
S111             R1               j170             44.3     57.5     251508.6 2.3      0                        

[SUBAREAS]
;;Subcatchment   N-Imperv   N-Perv     S-Imperv   S-Perv     PctZero    RouteTo    PctRouted 
;;-------------- ---------- ---------- ---------- ---------- ---------- ---------- ----------
S1               0.014      0.1        1.27       7.62       25         OUTLET    
S2               0.014      0.1        1.27       7.62       25         OUTLET    
S3               0.014      0.1        1.27       7.62       25         OUTLET    
S4               0.014      0.1        1.27       7.62       25         OUTLET    
S5               0.014      0.1        1.27       7.62       25         OUTLET    
S6               0.014      0.1        1.27       7.62       25         OUTLET    
S7               0.014      0.1        1.27       7.62       25         OUTLET    
S8               0.014      0.1        1.27       7.62       25         OUTLET    
S9               0.014      0.1        1.27       7.62       25         OUTLET    
S10              0.014      0.1        1.27       7.62       25         OUTLET    
S11              0.014      0.1        1.27       7.62       25         OUTLET    
S12              0.014      0.1        1.27       7.62       25         OUTLET    
S13              0.014      0.1        1.27       7.62       25         OUTLET    
S14              0.014      0.1        1.27       7.62       25         OUTLET    
S15              0.014      0.1        1.27       7.62       25         OUTLET    
S16              0.014      0.1        1.27       7.62       25         OUTLET    
S17              0.014      0.1        1.27       7.62       25         OUTLET    
S18              0.014      0.1        1.27       7.62       25         OUTLET    
S19              0.014      0.1        1.27       7.62       25         OUTLET    
S20              0.014      0.1        1.27       7.62       25         OUTLET    
S21              0.014      0.1        1.27       7.62       25         OUTLET    
S22              0.014      0.1        1.27       7.62       25         OUTLET    
S23              0.014      0.1        1.27       7.62       25         OUTLET    
S24              0.014      0.1        1.27       7.62       25         OUTLET    
S25              0.014      0.1        1.27       7.62       25         OUTLET    
S26              0.014      0.1        1.27       7.62       25         OUTLET    
S27              0.016      0.28       1.27       7.62       25         OUTLET    
S28              0.014      0.1        1.27       7.62       25         OUTLET    
S29              0.014      0.1        1.27       7.62       25         OUTLET    
S30              0.014      0.1        1.27       7.62       25         OUTLET    
S31              0.014      0.1        1.27       7.62       25         OUTLET    
S32              0.016      0.28       1.27       7.62       25         OUTLET    
S33              0.016      0.28       1.27       7.62       25         OUTLET    
S34              0.016      0.28       1.27       7.62       25         OUTLET    
S35              0.014      0.1        1.27       7.62       25         OUTLET    
S36              0.014      0.1        1.27       7.62       25         OUTLET    
S37              0.014      0.1        1.27       7.62       25         OUTLET    
S38              0.014      0.1        1.27       7.62       25         OUTLET    
S39              0.014      0.1        1.27       7.62       25         OUTLET    
S40              0.014      0.1        1.27       7.62       25         OUTLET    
S41              0.014      0.1        1.27       7.62       25         OUTLET    
S42              0.014      0.1        1.27       7.62       25         OUTLET    
S43              0.014      0.1        1.27       7.62       25         OUTLET    
S44              0.014      0.1        1.27       7.62       25         OUTLET    
S45              0.014      0.1        1.27       7.62       25         OUTLET    
S46              0.014      0.1        1.27       7.62       25         OUTLET    
S47              0.016      0.28       1.27       7.62       25         OUTLET    
S48              0.014      0.1        1.27       7.62       25         OUTLET    
S49              0.014      0.1        1.27       7.62       25         OUTLET    
S50              0.014      0.1        1.27       7.62       25         OUTLET    
S51              0.014      0.1        1.27       7.62       25         OUTLET    
S52              0.014      0.1        1.27       7.62       25         OUTLET    
S53              0.016      0.28       1.27       7.62       25         OUTLET    
S54              0.014      0.1        1.27       7.62       25         OUTLET    
S55              0.014      0.1        1.27       7.62       25         OUTLET    
S56              0.014      0.1        1.27       7.62       25         OUTLET    
S57              0.014      0.1        1.27       7.62       25         OUTLET    
S58              0.016      0.28       1.27       7.62       25         OUTLET    
S59              0.016      0.28       1.27       7.62       25         OUTLET    
S60              0.016      0.28       1.27       7.62       25         OUTLET    
S61              0.016      0.28       1.27       7.62       25         OUTLET    
S62              0.014      0.1        1.27       7.62       25         OUTLET    
S63              0.014      0.1        1.27       7.62       25         OUTLET    
S64              0.014      0.1        1.27       7.62       25         OUTLET    
S65              0.014      0.1        1.27       7.62       25         OUTLET    
S66              0.016      0.28       1.27       7.62       25         OUTLET    
S67              0.016      0.28       1.27       7.62       25         OUTLET    
S68              0.016      0.28       1.27       7.62       25         OUTLET    
S69              0.014      0.1        1.27       7.62       25         OUTLET    
S70              0.014      0.1        1.27       7.62       25         OUTLET    
S71              0.014      0.1        1.27       7.62       25         OUTLET    
S72              0.014      0.1        1.27       7.62       25         OUTLET    
S73              0.014      0.1        1.27       7.62       25         OUTLET    
S74              0.016      0.28       1.27       7.62       25         OUTLET    
S75              0.014      0.1        1.27       7.62       25         OUTLET    
S76              0.014      0.1        1.27       7.62       25         OUTLET    
S77              0.016      0.28       1.27       7.62       25         OUTLET    
S78              0.016      0.28       1.27       7.62       25         OUTLET    
S79              0.014      0.1        1.27       7.62       25         OUTLET    
S80              0.016      0.28       1.27       7.62       25         OUTLET    
S81              0.016      0.28       1.27       7.62       25         OUTLET    
S82              0.014      0.1        1.27       7.62       25         OUTLET    
S83              0.014      0.1        1.27       7.62       25         OUTLET    
S84              0.014      0.1        1.27       7.62       25         OUTLET    
S85              0.014      0.1        1.27       7.62       25         OUTLET    
S86              0.016      0.28       1.27       7.62       25         OUTLET    
S87              0.016      0.28       1.27       7.62       25         OUTLET    
S88              0.014      0.1        1.27       7.62       25         OUTLET    
S89              0.014      0.1        1.27       7.62       25         OUTLET    
S90              0.014      0.1        1.27       7.62       25         OUTLET    
S91              0.014      0.1        1.27       7.62       25         OUTLET    
S92              0.016      0.28       1.27       7.62       25         OUTLET    
S93              0.016      0.28       1.27       7.62       25         OUTLET    
S94              0.016      0.28       1.27       7.62       25         OUTLET    
S95              0.014      0.1        1.27       7.62       25         OUTLET    
S96              0.014      0.1        1.27       7.62       25         OUTLET    
S97              0.014      0.1        1.27       7.62       25         OUTLET    
S98              0.014      0.1        1.27       7.62       25         OUTLET    
S99              0.014      0.1        1.27       7.62       25         OUTLET    
S100             0.014      0.1        1.27       7.62       25         OUTLET    
S101             0.016      0.28       1.27       7.62       25         OUTLET    
S102             0.014      0.1        1.27       7.62       25         OUTLET    
S103             0.014      0.1        1.27       7.62       25         OUTLET    
S104             0.014      0.1        1.27       7.62       25         OUTLET    
S105             0.014      0.1        1.27       7.62       25         OUTLET    
S106             0.014      0.1        1.27       7.62       25         OUTLET    
S107             0.014      0.1        1.27       7.62       25         OUTLET    
S108             0.014      0.1        1.27       7.62       25         OUTLET    
S109             0.014      0.1        1.27       7.62       25         OUTLET    
S110             0.014      0.1        1.27       7.62       25         OUTLET    
S111             0.014      0.1        1.27       7.62       25         OUTLET    

[INFILTRATION]
;;Subcatchment   MaxRate    MinRate    Decay      DryTime    MaxInfil  
;;-------------- ---------- ---------- ---------- ---------- ----------
S1               76.2       3.3        4.5        7          5         
S2               76.2       3.3        4.5        7          5         
S3               76.2       3.3        4.5        7          5         
S4               76.2       3.3        4.5        7          5         
S5               76.2       3.3        4.5        7          5         
S6               76.2       3.3        4.5        7          5         
S7               76.2       3.3        4.5        7          5         
S8               76.2       3.3        4.5        7          5         
S9               76.2       3.3        4.5        7          5         
S10              76.2       3.3        4.5        7          5         
S11              76.2       3.3        4.5        7          5         
S12              76.2       3.3        4.5        7          5         
S13              76.2       3.3        4.5        7          5         
S14              76.2       3.3        4.5        7          5         
S15              76.2       3.3        4.5        7          5         
S16              76.2       3.3        4.5        7          5         
S17              76.2       3.3        4.5        7          5         
S18              76.2       3.3        4.5        7          5         
S19              76.2       3.3        4.5        7          5         
S20              76.2       3.3        4.5        7          5         
S21              76.2       3.3        4.5        7          5         
S22              76.2       3.3        4.5        7          5         
S23              76.2       3.3        4.5        7          5         
S24              76.2       3.3        4.5        7          5         
S25              76.2       3.3        4.5        7          5         
S26              76.2       3.3        4.5        7          5         
S27              76.2       3.3        4.5        7          5         
S28              76.2       3.3        4.5        7          5         
S29              76.2       3.3        4.5        7          5         
S30              76.2       3.3        4.5        7          5         
S31              76.2       3.3        4.5        7          5         
S32              76.2       3.3        4.5        7          5         
S33              76.2       3.3        4.5        7          5         
S34              76.2       3.3        4.5        7          5         
S35              76.2       3.3        4.5        7          5         
S36              76.2       3.3        4.5        7          5         
S37              76.2       3.3        4.5        7          5         
S38              76.2       3.3        4.5        7          5         
S39              76.2       3.3        4.5        7          5         
S40              76.2       3.3        4.5        7          5         
S41              76.2       3.3        4.5        7          5         
S42              76.2       3.3        4.5        7          5         
S43              76.2       3.3        4.5        7          5         
S44              76.2       3.3        4.5        7          5         
S45              76.2       3.3        4.5        7          5         
S46              76.2       3.3        4.5        7          5         
S47              76.2       3.3        4.5        7          5         
S48              76.2       3.3        4.5        7          5         
S49              76.2       3.3        4.5        7          5         
S50              76.2       3.3        4.5        7          5         
S51              76.2       3.3        4.5        7          5         
S52              76.2       3.3        4.5        7          5         
S53              76.2       15         0.001      5          2         
S54              76.2       3.3        4.5        7          5         
S55              76.2       3.3        4.5        7          5         
S56              76.2       3.3        4.5        7          5         
S57              76.2       3.3        4.5        7          5         
S58              76.2       15         0.001      5          2         
S59              76.2       15         0.001      5          2         
S60              76.2       10         4          7          5         
S61              76.2       15         0.001      5          2         
S62              76.2       3.3        4.5        7          5         
S63              76.2       3.3        4.5        7          5         
S64              76.2       3.3        4.5        7          5         
S65              76.2       3.3        4.5        7          5         
S66              76.2       15         0.001      5          2         
S67              76.2       15         0.001      5          2         
S68              76.2       15         0.001      5          2         
S69              76.2       3.3        4.5        7          5         
S70              76.2       3.3        4.5        7          5         
S71              76.2       3.3        4.5        7          5         
S72              76.2       3.3        4.5        7          5         
S73              76.2       3.3        4.5        7          5         
S74              76.2       15         0.001      5          2         
S75              76.2       3.3        4.5        7          5         
S76              76.2       3.3        4.5        7          5         
S77              76.2       15         0.001      5          2         
S78              76.2       15         0.001      5          2         
S79              76.2       3.3        4.5        7          5         
S80              76.2       15         0.001      5          2         
S81              76.2       15         0.001      5          2         
S82              76.2       3.3        4.5        7          5         
S83              76.2       3.3        4.5        7          5         
S84              76.2       3.3        4.5        7          5         
S85              76.2       3.3        4.5        7          5         
S86              76.2       15         0.001      5          2         